
Version,
  9.3;                                    !- Version Identifier

Timestep,
  1;                                      !- Number of Timesteps per Hour

LifeCycleCost:Parameters,
  Life Cycle Cost Parameters,             !- Name
  EndOfYear,                              !- Discounting Convention
  ConstantDollar,                         !- Inflation Approach
  0.03,                                   !- Real Discount Rate
  ,                                       !- Nominal Discount Rate
  ,                                       !- Inflation
  ,                                       !- Base Date Month
  2011,                                   !- Base Date Year
  ,                                       !- Service Date Month
  2011,                                   !- Service Date Year
  25,                                     !- Length of Study Period in Years
  ,                                       !- Tax rate
  None;                                   !- Depreciation Method

LifeCycleCost:UsePriceEscalation,
  U.S. Avg  Commercial-Electricity,       !- Name
  Electricity,                            !- Resource
  2011,                                   !- Escalation Start Year
  January,                                !- Escalation Start Month
  0.9838,                                 !- Year Escalation 1
  0.9730,                                 !- Year Escalation 2
  0.9632,                                 !- Year Escalation 3
  0.9611,                                 !- Year Escalation 4
  0.9571,                                 !- Year Escalation 5
  0.9553,                                 !- Year Escalation 6
  0.9539,                                 !- Year Escalation 7
  0.9521,                                 !- Year Escalation 8
  0.9546,                                 !- Year Escalation 9
  0.9550,                                 !- Year Escalation 10
  0.9553,                                 !- Year Escalation 11
  0.9564,                                 !- Year Escalation 12
  0.9575,                                 !- Year Escalation 13
  0.9596,                                 !- Year Escalation 14
  0.9618,                                 !- Year Escalation 15
  0.9614,                                 !- Year Escalation 16
  0.9618,                                 !- Year Escalation 17
  0.9618,                                 !- Year Escalation 18
  0.9593,                                 !- Year Escalation 19
  0.9589,                                 !- Year Escalation 20
  0.9607,                                 !- Year Escalation 21
  0.9625,                                 !- Year Escalation 22
  0.9650,                                 !- Year Escalation 23
  0.9708,                                 !- Year Escalation 24
  0.9751,                                 !- Year Escalation 25
  0.9762,                                 !- Year Escalation 26
  0.9766,                                 !- Year Escalation 27
  0.9766,                                 !- Year Escalation 28
  0.9769,                                 !- Year Escalation 29
  0.9773;                                 !- Year Escalation 30

LifeCycleCost:UsePriceEscalation,
  U.S. Avg  Commercial-Distillate Oil,    !- Name
  FuelOilNo1,                             !- Resource
  2011,                                   !- Escalation Start Year
  January,                                !- Escalation Start Month
  0.9714,                                 !- Year Escalation 1
  0.9730,                                 !- Year Escalation 2
  0.9942,                                 !- Year Escalation 3
  1.0164,                                 !- Year Escalation 4
  1.0541,                                 !- Year Escalation 5
  1.0928,                                 !- Year Escalation 6
  1.1267,                                 !- Year Escalation 7
  1.1580,                                 !- Year Escalation 8
  1.1792,                                 !- Year Escalation 9
  1.1967,                                 !- Year Escalation 10
  1.2200,                                 !- Year Escalation 11
  1.2333,                                 !- Year Escalation 12
  1.2566,                                 !- Year Escalation 13
  1.2709,                                 !- Year Escalation 14
  1.2826,                                 !- Year Escalation 15
  1.2985,                                 !- Year Escalation 16
  1.3102,                                 !- Year Escalation 17
  1.3250,                                 !- Year Escalation 18
  1.3261,                                 !- Year Escalation 19
  1.3282,                                 !- Year Escalation 20
  1.3324,                                 !- Year Escalation 21
  1.3356,                                 !- Year Escalation 22
  1.3431,                                 !- Year Escalation 23
  1.3510,                                 !- Year Escalation 24
  1.3568,                                 !- Year Escalation 25
  1.3606,                                 !- Year Escalation 26
  1.3637,                                 !- Year Escalation 27
  1.3674,                                 !- Year Escalation 28
  1.3706,                                 !- Year Escalation 29
  1.3743;                                 !- Year Escalation 30

LifeCycleCost:UsePriceEscalation,
  U.S. Avg  Commercial-Residual Oil,      !- Name
  FuelOilNo2,                             !- Resource
  2011,                                   !- Escalation Start Year
  January,                                !- Escalation Start Month
  0.8469,                                 !- Year Escalation 1
  0.8257,                                 !- Year Escalation 2
  0.8681,                                 !- Year Escalation 3
  0.8988,                                 !- Year Escalation 4
  0.9289,                                 !- Year Escalation 5
  0.9604,                                 !- Year Escalation 6
  0.9897,                                 !- Year Escalation 7
  1.0075,                                 !- Year Escalation 8
  1.0314,                                 !- Year Escalation 9
  1.0554,                                 !- Year Escalation 10
  1.0861,                                 !- Year Escalation 11
  1.1278,                                 !- Year Escalation 12
  1.1497,                                 !- Year Escalation 13
  1.1620,                                 !- Year Escalation 14
  1.1743,                                 !- Year Escalation 15
  1.1852,                                 !- Year Escalation 16
  1.1948,                                 !- Year Escalation 17
  1.2037,                                 !- Year Escalation 18
  1.2071,                                 !- Year Escalation 19
  1.2119,                                 !- Year Escalation 20
  1.2139,                                 !- Year Escalation 21
  1.2194,                                 !- Year Escalation 22
  1.2276,                                 !- Year Escalation 23
  1.2365,                                 !- Year Escalation 24
  1.2420,                                 !- Year Escalation 25
  1.2461,                                 !- Year Escalation 26
  1.2509,                                 !- Year Escalation 27
  1.2550,                                 !- Year Escalation 28
  1.2591,                                 !- Year Escalation 29
  1.2638;                                 !- Year Escalation 30

LifeCycleCost:UsePriceEscalation,
  U.S. Avg  Commercial-Natural gas,       !- Name
  NaturalGas,                             !- Resource
  2011,                                   !- Escalation Start Year
  January,                                !- Escalation Start Month
  0.9823,                                 !- Year Escalation 1
  0.9557,                                 !- Year Escalation 2
  0.9279,                                 !- Year Escalation 3
  0.9257,                                 !- Year Escalation 4
  0.9346,                                 !- Year Escalation 5
  0.9412,                                 !- Year Escalation 6
  0.9512,                                 !- Year Escalation 7
  0.9645,                                 !- Year Escalation 8
  0.9856,                                 !- Year Escalation 9
  1.0067,                                 !- Year Escalation 10
  1.0222,                                 !- Year Escalation 11
  1.0410,                                 !- Year Escalation 12
  1.0610,                                 !- Year Escalation 13
  1.0787,                                 !- Year Escalation 14
  1.0942,                                 !- Year Escalation 15
  1.1098,                                 !- Year Escalation 16
  1.1220,                                 !- Year Escalation 17
  1.1308,                                 !- Year Escalation 18
  1.1386,                                 !- Year Escalation 19
  1.1486,                                 !- Year Escalation 20
  1.1619,                                 !- Year Escalation 21
  1.1763,                                 !- Year Escalation 22
  1.1918,                                 !- Year Escalation 23
  1.2118,                                 !- Year Escalation 24
  1.2284,                                 !- Year Escalation 25
  1.2439,                                 !- Year Escalation 26
  1.2605,                                 !- Year Escalation 27
  1.2772,                                 !- Year Escalation 28
  1.2938,                                 !- Year Escalation 29
  1.3115;                                 !- Year Escalation 30

LifeCycleCost:UsePriceEscalation,
  U.S. Avg  Commercial-Coal,              !- Name
  Coal,                                   !- Resource
  2011,                                   !- Escalation Start Year
  January,                                !- Escalation Start Month
  0.9970,                                 !- Year Escalation 1
  1.0089,                                 !- Year Escalation 2
  1.0089,                                 !- Year Escalation 3
  0.9941,                                 !- Year Escalation 4
  0.9941,                                 !- Year Escalation 5
  1.0000,                                 !- Year Escalation 6
  1.0030,                                 !- Year Escalation 7
  1.0059,                                 !- Year Escalation 8
  1.0089,                                 !- Year Escalation 9
  1.0119,                                 !- Year Escalation 10
  1.0148,                                 !- Year Escalation 11
  1.0178,                                 !- Year Escalation 12
  1.0208,                                 !- Year Escalation 13
  1.0267,                                 !- Year Escalation 14
  1.0297,                                 !- Year Escalation 15
  1.0356,                                 !- Year Escalation 16
  1.0415,                                 !- Year Escalation 17
  1.0534,                                 !- Year Escalation 18
  1.0564,                                 !- Year Escalation 19
  1.0593,                                 !- Year Escalation 20
  1.0653,                                 !- Year Escalation 21
  1.0712,                                 !- Year Escalation 22
  1.0742,                                 !- Year Escalation 23
  1.0801,                                 !- Year Escalation 24
  1.0831,                                 !- Year Escalation 25
  1.0831,                                 !- Year Escalation 26
  1.0861,                                 !- Year Escalation 27
  1.0890,                                 !- Year Escalation 28
  1.0920,                                 !- Year Escalation 29
  1.0950;                                 !- Year Escalation 30

Building,
  Building 1,                             !- Name
  ,                                       !- North Axis {deg}
  City,                                   !- Terrain
  ,                                       !- Loads Convergence Tolerance Value {W}
  ,                                       !- Temperature Convergence Tolerance Value {deltaC}
  ,                                       !- Solar Distribution
  ,                                       !- Maximum Number of Warmup Days
  ;                                       !- Minimum Number of Warmup Days

Zone,
  0_Bdrm_1_2,                             !- Name
  ,                                       !- Direction of Relative North {deg}
  ,                                       !- X Origin {m}
  ,                                       !- Y Origin {m}
  ,                                       !- Z Origin {m}
  ,                                       !- Type
  ,                                       !- Multiplier
  ,                                       !- Ceiling Height {m}
  ,                                       !- Volume {m3}
  ,                                       !- Floor Area {m2}
  ,                                       !- Zone Inside Convection Algorithm
  ;                                       !- Zone Outside Convection Algorithm

BuildingSurface:Detailed,
  Face 245,                               !- Name
  Floor,                                  !- Surface Type
  Typical Interior Floor,                 !- Construction Name
  0_Bdrm_1_2,                             !- Zone Name
  Surface,                                !- Outside Boundary Condition
  Surface 6,                              !- Outside Boundary Condition Object
  NoSun,                                  !- Sun Exposure
  NoWind,                                 !- Wind Exposure
  ,                                       !- View Factor to Ground
  ,                                       !- Number of Vertices
  48.768, 9.144, 4.2672,                  !- X,Y,Z Vertex 1 {m}
  48.768, 0, 4.2672,                      !- X,Y,Z Vertex 2 {m}
  44.196, 0, 4.2672,                      !- X,Y,Z Vertex 3 {m}
  44.196, 9.144, 4.2672;                  !- X,Y,Z Vertex 4 {m}

BuildingSurface:Detailed,
  Face 246,                               !- Name
  Ceiling,                                !- Surface Type
  Typical Interior Ceiling,               !- Construction Name
  0_Bdrm_1_2,                             !- Zone Name
  Surface,                                !- Outside Boundary Condition
  Face 431,                               !- Outside Boundary Condition Object
  NoSun,                                  !- Sun Exposure
  NoWind,                                 !- Wind Exposure
  ,                                       !- View Factor to Ground
  ,                                       !- Number of Vertices
  44.196, 9.144, 7.3152,                  !- X,Y,Z Vertex 1 {m}
  44.196, 0, 7.3152,                      !- X,Y,Z Vertex 2 {m}
  48.768, 0, 7.3152,                      !- X,Y,Z Vertex 3 {m}
  48.768, 9.144, 7.3152;                  !- X,Y,Z Vertex 4 {m}

BuildingSurface:Detailed,
  Face 247,                               !- Name
  Wall,                                   !- Surface Type
  Typical Interior Wall,                  !- Construction Name
  0_Bdrm_1_2,                             !- Zone Name
  Surface,                                !- Outside Boundary Condition
  Face 256,                               !- Outside Boundary Condition Object
  NoSun,                                  !- Sun Exposure
  NoWind,                                 !- Wind Exposure
  ,                                       !- View Factor to Ground
  ,                                       !- Number of Vertices
  48.768, 9.144, 7.3152,                  !- X,Y,Z Vertex 1 {m}
  48.768, 6.096, 7.3152,                  !- X,Y,Z Vertex 2 {m}
  48.768, 6.096, 4.2672,                  !- X,Y,Z Vertex 3 {m}
  48.768, 9.144, 4.2672;                  !- X,Y,Z Vertex 4 {m}

BuildingSurface:Detailed,
  Face 248,                               !- Name
  Wall,                                   !- Surface Type
  Typical Interior Wall,                  !- Construction Name
  0_Bdrm_1_2,                             !- Zone Name
  Surface,                                !- Outside Boundary Condition
  Face 160,                               !- Outside Boundary Condition Object
  NoSun,                                  !- Sun Exposure
  NoWind,                                 !- Wind Exposure
  ,                                       !- View Factor to Ground
  ,                                       !- Number of Vertices
  48.768, 6.096, 7.3152,                  !- X,Y,Z Vertex 1 {m}
  48.768, 0, 7.3152,                      !- X,Y,Z Vertex 2 {m}
  48.768, 0, 4.2672,                      !- X,Y,Z Vertex 3 {m}
  48.768, 6.096, 4.2672;                  !- X,Y,Z Vertex 4 {m}

BuildingSurface:Detailed,
  Face 249,                               !- Name
  Wall,                                   !- Surface Type
  Typical Insulated Wood Framed Exterior Wall R-34.48, !- Construction Name
  0_Bdrm_1_2,                             !- Zone Name
  Outdoors,                               !- Outside Boundary Condition
  ,                                       !- Outside Boundary Condition Object
  SunExposed,                             !- Sun Exposure
  WindExposed,                            !- Wind Exposure
  ,                                       !- View Factor to Ground
  ,                                       !- Number of Vertices
  48.768, 0, 7.3152,                      !- X,Y,Z Vertex 1 {m}
  44.196, 0, 7.3152,                      !- X,Y,Z Vertex 2 {m}
  44.196, 0, 4.2672,                      !- X,Y,Z Vertex 3 {m}
  48.768, 0, 4.2672;                      !- X,Y,Z Vertex 4 {m}

FenestrationSurface:Detailed,
  Sub Surface 27,                         !- Name
  Window,                                 !- Surface Type
  U 0.25 SHGC 0.22 Simple Glazing Window U-0.25 SHGC 0.22, !- Construction Name
  Face 249,                               !- Building Surface Name
  ,                                       !- Outside Boundary Condition Object
  ,                                       !- View Factor to Ground
  ,                                       !- Frame and Divider Name
  ,                                       !- Multiplier
  ,                                       !- Number of Vertices
  44.2214, 0, 5.95387415730337,           !- X,Y,Z Vertex 1 {m}
  44.2214, 0, 5.0292,                     !- X,Y,Z Vertex 2 {m}
  48.7426, 0, 5.0292,                     !- X,Y,Z Vertex 3 {m}
  48.7426, 0, 5.95387415730337;           !- X,Y,Z Vertex 4 {m}

BuildingSurface:Detailed,
  Face 250,                               !- Name
  Wall,                                   !- Surface Type
  Typical Interior Wall,                  !- Construction Name
  0_Bdrm_1_2,                             !- Zone Name
  Surface,                                !- Outside Boundary Condition
  Face 241,                               !- Outside Boundary Condition Object
  NoSun,                                  !- Sun Exposure
  NoWind,                                 !- Wind Exposure
  ,                                       !- View Factor to Ground
  ,                                       !- Number of Vertices
  44.196, 0, 7.3152,                      !- X,Y,Z Vertex 1 {m}
  44.196, 9.144, 7.3152,                  !- X,Y,Z Vertex 2 {m}
  44.196, 9.144, 4.2672,                  !- X,Y,Z Vertex 3 {m}
  44.196, 0, 4.2672;                      !- X,Y,Z Vertex 4 {m}

BuildingSurface:Detailed,
  Face 251,                               !- Name
  Wall,                                   !- Surface Type
  Typical Interior Wall,                  !- Construction Name
  0_Bdrm_1_2,                             !- Zone Name
  Surface,                                !- Outside Boundary Condition
  Face 170,                               !- Outside Boundary Condition Object
  NoSun,                                  !- Sun Exposure
  NoWind,                                 !- Wind Exposure
  ,                                       !- View Factor to Ground
  ,                                       !- Number of Vertices
  44.196, 9.144, 7.3152,                  !- X,Y,Z Vertex 1 {m}
  48.768, 9.144, 7.3152,                  !- X,Y,Z Vertex 2 {m}
  48.768, 9.144, 4.2672,                  !- X,Y,Z Vertex 3 {m}
  44.196, 9.144, 4.2672;                  !- X,Y,Z Vertex 4 {m}

Shading:Zone:Detailed,
  Sub Surface 27 - Overhang,              !- Name
  Face 249,                               !- Base Surface Name
  ,                                       !- Transmittance Schedule Name
  ,                                       !- Number of Vertices
  48.7426, 0, 5.95387415730337,           !- X,Y,Z Vertex 1 {m}
  44.2214, 0, 5.95387415730337,           !- X,Y,Z Vertex 2 {m}
  44.2214, -0.92467415730337, 5.95387415730337, !- X,Y,Z Vertex 3 {m}
  48.7426, -0.92467415730337, 5.95387415730337; !- X,Y,Z Vertex 4 {m}

InternalMass,
  0_Bdrm_1_2 Mass,                        !- Name
  InteriorFurnishings,                    !- Construction Name
  0_Bdrm_1_2,                             !- Zone or ZoneList Name
  83.6127360000001;                       !- Surface Area {m2}

People,
  res occupants|Building Unit 001|0_Bdrm_1_2, !- Name
  0_Bdrm_1_2,                             !- Zone or ZoneList Name
  res occupants schedule,                 !- Number of People Schedule Name
  People,                                 !- Number of People Calculation Method
  0.63,                                   !- Number of People
  ,                                       !- People per Zone Floor Area {person/m2}
  ,                                       !- Zone Floor Area per Person {m2/person}
  0.319734,                               !- Fraction Radiant
  0.573,                                  !- Sensible Heat Fraction
  Schedule Ruleset 1,                     !- Activity Level Schedule Name
  0,                                      !- Carbon Dioxide Generation Rate {m3/s-W}
  No,                                     !- Enable ASHRAE 55 Comfort Warnings
  ZoneAveraged;                           !- Mean Radiant Temperature Calculation Type

Lights,
  res lighting interior|Building Unit 001 0_Bdrm_1_2, !- Name
  0_Bdrm_1_2,                             !- Zone or ZoneList Name
  res lighting interior,                  !- Schedule Name
  LightingLevel,                          !- Design Level Calculation Method
  95.8140029450718,                       !- Lighting Level {W}
  ,                                       !- Watts per Zone Floor Area {W/m2}
  ,                                       !- Watts per Person {W/person}
  0,                                      !- Return Air Fraction
  0.6,                                    !- Fraction Radiant
  0.2,                                    !- Fraction Visible
  1,                                      !- Fraction Replaceable
  res lighting interior|Building Unit 001 0_Bdrm_1_2; !- End-Use Subcategory

ScheduleTypeLimits,
  Fractional,                             !- Name
  0,                                      !- Lower Limit Value {BasedOnField A3}
  1,                                      !- Upper Limit Value {BasedOnField A3}
  Continuous;                             !- Numeric Type

Schedule:Day:Interval,
  res lighting interior allday1,          !- Name
  Fractional,                             !- Schedule Type Limits Name
  No,                                     !- Interpolate to Timestep
  01:00,                                  !- Time 1 {hh:mm}
  0.123287702194083,                      !- Value Until Time 1
  02:00,                                  !- Time 2 {hh:mm}
  0.0739726213164499,                     !- Value Until Time 2
  04:00,                                  !- Time 3 {hh:mm}
  0.0493150808776332,                     !- Value Until Time 3
  05:00,                                  !- Time 4 {hh:mm}
  0.0548272723640398,                     !- Value Until Time 4
  06:00,                                  !- Time 5 {hh:mm}
  0.150439603301673,                      !- Value Until Time 5
  07:00,                                  !- Time 6 {hh:mm}
  0.353190660161157,                      !- Value Until Time 6
  08:00,                                  !- Time 7 {hh:mm}
  0.446953675565878,                      !- Value Until Time 7
  09:00,                                  !- Time 8 {hh:mm}
  0.474986225503393,                      !- Value Until Time 8
  10:00,                                  !- Time 9 {hh:mm}
  0.488252624096401,                      !- Value Until Time 9
  11:00,                                  !- Time 10 {hh:mm}
  0.474977371484026,                      !- Value Until Time 10
  12:00,                                  !- Time 11 {hh:mm}
  0.456584868939202,                      !- Value Until Time 11
  13:00,                                  !- Time 12 {hh:mm}
  0.443309616326827,                      !- Value Until Time 12
  14:00,                                  !- Time 13 {hh:mm}
  0.439403178541346,                      !- Value Until Time 13
  15:00,                                  !- Time 14 {hh:mm}
  0.444416216352523,                      !- Value Until Time 14
  16:00,                                  !- Time 15 {hh:mm}
  0.477697020057064,                      !- Value Until Time 15
  17:00,                                  !- Time 16 {hh:mm}
  0.574054619174982,                      !- Value Until Time 16
  18:00,                                  !- Time 17 {hh:mm}
  0.758844545116549,                      !- Value Until Time 17
  19:00,                                  !- Time 18 {hh:mm}
  0.953116508275108,                      !- Value Until Time 18
  20:00,                                  !- Time 19 {hh:mm}
  1,                                      !- Value Until Time 19
  21:00,                                  !- Time 20 {hh:mm}
  0.854585174716494,                      !- Value Until Time 20
  22:00,                                  !- Time 21 {hh:mm}
  0.647975692656104,                      !- Value Until Time 21
  23:00,                                  !- Time 22 {hh:mm}
  0.557158651933228,                      !- Value Until Time 22
  24:00,                                  !- Time 23 {hh:mm}
  0.248292256811341;                      !- Value Until Time 23

Schedule:Day:Interval,
  res lighting interior allday2,          !- Name
  Fractional,                             !- Schedule Type Limits Name
  No,                                     !- Interpolate to Timestep
  01:00,                                  !- Time 1 {hh:mm}
  0.123287702194083,                      !- Value Until Time 1
  02:00,                                  !- Time 2 {hh:mm}
  0.0739726213164499,                     !- Value Until Time 2
  04:00,                                  !- Time 3 {hh:mm}
  0.0493150808776332,                     !- Value Until Time 3
  05:00,                                  !- Time 4 {hh:mm}
  0.054545273915194,                      !- Value Until Time 4
  06:00,                                  !- Time 5 {hh:mm}
  0.149033434533545,                      !- Value Until Time 5
  07:00,                                  !- Time 6 {hh:mm}
  0.349889364062169,                      !- Value Until Time 6
  08:00,                                  !- Time 7 {hh:mm}
  0.442775970456404,                      !- Value Until Time 7
  09:00,                                  !- Time 8 {hh:mm}
  0.468267279455568,                      !- Value Until Time 8
  10:00,                                  !- Time 9 {hh:mm}
  0.47913045728836,                       !- Value Until Time 9
  11:00,                                  !- Time 10 {hh:mm}
  0.465979289326588,                      !- Value Until Time 10
  12:00,                                  !- Time 11 {hh:mm}
  0.447758702700701,                      !- Value Until Time 11
  13:00,                                  !- Time 12 {hh:mm}
  0.434607534738929,                      !- Value Until Time 12
  14:00,                                  !- Time 13 {hh:mm}
  0.430737610681802,                      !- Value Until Time 13
  15:00,                                  !- Time 14 {hh:mm}
  0.433423342194008,                      !- Value Until Time 14
  16:00,                                  !- Time 15 {hh:mm}
  0.453345452158962,                      !- Value Until Time 15
  17:00,                                  !- Time 16 {hh:mm}
  0.517169515427665,                      !- Value Until Time 16
  18:00,                                  !- Time 17 {hh:mm}
  0.659315392234599,                      !- Value Until Time 17
  19:00,                                  !- Time 18 {hh:mm}
  0.852253273465205,                      !- Value Until Time 18
  20:00,                                  !- Time 19 {hh:mm}
  0.973650047068673,                      !- Value Until Time 19
  21:00,                                  !- Time 20 {hh:mm}
  0.919330601837657,                      !- Value Until Time 20
  22:00,                                  !- Time 21 {hh:mm}
  0.737925135284592,                      !- Value Until Time 21
  23:00,                                  !- Time 22 {hh:mm}
  0.650073821175356,                      !- Value Until Time 22
  24:00,                                  !- Time 23 {hh:mm}
  0.248292256811341;                      !- Value Until Time 23

Schedule:Week:Daily,
  res lighting interior Week Rule - Jan1-Jan26, !- Name
  res lighting interior allday1,          !- Sunday Schedule:Day Name
  res lighting interior allday1,          !- Monday Schedule:Day Name
  res lighting interior allday1,          !- Tuesday Schedule:Day Name
  res lighting interior allday1,          !- Wednesday Schedule:Day Name
  res lighting interior allday1,          !- Thursday Schedule:Day Name