
OS:Version,
  {9c9ac75d-3bd0-4693-8ff7-930fa318ebb0}, !- Handle
  3.0.1;                                  !- Version Identifier

OS:Schedule:Constant,
  {55fedaae-d10e-4283-8489-8b6237ed81d8}, !- Handle
  Always On Discrete,                     !- Name
  {693b2109-fbe9-4984-bc19-41062ab09214}, !- Schedule Type Limits Name
  1;                                      !- Value

OS:ScheduleTypeLimits,
  {693b2109-fbe9-4984-bc19-41062ab09214}, !- Handle
  Always On Discrete Limits,              !- Name
  0,                                      !- Lower Limit Value
  1,                                      !- Upper Limit Value
  Discrete,                               !- Numeric Type
  Availability;                           !- Unit Type

OS:Site,
  {bc874655-a927-4872-a278-1347186bb1d9}, !- Handle
  Los Angeles Intl Arpt_CA_USA,           !- Name
  33.93,                                  !- Latitude {deg}
  -118.4,                                 !- Longitude {deg}
  -8,                                     !- Time Zone {hr}
  30,                                     !- Elevation {m}
  City;                                   !- Terrain

OS:YearDescription,
  {9116ce1c-534f-4b3a-9d15-2bb1a805c7e1}, !- Handle
  2019,                                   !- Calendar Year
  ,                                       !- Day of Week for Start Day
  ;                                       !- Is Leap Year

OS:ClimateZones,
  {dd268d6b-2da7-4abc-b8ad-35d0988c56cd}, !- Handle
  ASHRAE,                                 !- Climate Zone Institution Name 1
  ANSI/ASHRAE Standard 169,               !- Climate Zone Document Name 1
  2006,                                   !- Climate Zone Document Year 1
  3C;                                     !- Climate Zone Value 1

OS:Building,
  {4434130b-100b-4e19-b646-32bcd4b44eba}, !- Handle
  Building 1,                             !- Name
  ,                                       !- Building Sector Type
  ,                                       !- North Axis {deg}
  ,                                       !- Nominal Floor to Floor Height {m}
  ,                                       !- Space Type Name
  {a1db1e7b-479d-420d-81c7-c79795c2a6fa}, !- Default Construction Set Name
  ,                                       !- Default Schedule Set Name
  ,                                       !- Standards Number of Stories
  3,                                      !- Standards Number of Above Ground Stories
  ,                                       !- Standards Template
  MidriseApartment;                       !- Standards Building Type

OS:Facility,
  {01cd2b0a-8ee0-4ab6-a2fb-9f6c7d21094d}; !- Handle

OS:SimulationControl,
  {30e9303f-ed23-491c-b310-8ef7274e967f}, !- Handle
  ,                                       !- Do Zone Sizing Calculation
  ,                                       !- Do System Sizing Calculation
  ,                                       !- Do Plant Sizing Calculation
  No,                                     !- Run Simulation for Sizing Periods
  Yes;                                    !- Run Simulation for Weather File Run Periods

OS:Sizing:Parameters,
  {c983733e-8a2d-428d-8380-a9c380f3d01c}, !- Handle
  1.25,                                   !- Heating Sizing Factor
  1.15;                                   !- Cooling Sizing Factor

OS:Timestep,
  {7a470c9d-4813-47b4-b276-325100b7b62f}, !- Handle
  1;                                      !- Number of Timesteps per Hour

OS:ShadowCalculation,
  {21696cf9-7a12-43bf-ac4c-50d1be8bf2fd}, !- Handle
  PolygonClipping,                        !- Shading Calculation Method
  ,                                       !- Shading Calculation Update Frequency Method
  20,                                     !- Shading Calculation Update Frequency
  200,                                    !- Maximum Figures in Shadow Overlap Calculations
  ,                                       !- Polygon Clipping Algorithm
  512,                                    !- Pixel Counting Resolution
  ,                                       !- Sky Diffuse Modeling Algorithm
  No,                                     !- Output External Shading Calculation Results
  No,                                     !- Disable Self-Shading Within Shading Zone Groups
  No;                                     !- Disable Self-Shading From Shading Zone Groups to Other Zones

OS:HeatBalanceAlgorithm,
  {09f4a614-27ba-43a9-a0ac-4379e03c44e8}, !- Handle
  ConductionTransferFunction,             !- Algorithm
  200;                                    !- Surface Temperature Upper Limit {C}

OS:RunPeriod,
  {322b0b21-e55e-459f-b4f2-853d2d37fd9a}, !- Handle
  Run Period 1,                           !- Name
  1,                                      !- Begin Month
  1,                                      !- Begin Day of Month
  12,                                     !- End Month
  31,                                     !- End Day of Month
  ,                                       !- Use Weather File Holidays and Special Days
  ,                                       !- Use Weather File Daylight Saving Period
  ,                                       !- Apply Weekend Holiday Rule
  ,                                       !- Use Weather File Rain Indicators
  ,                                       !- Use Weather File Snow Indicators
  ;                                       !- Number of Times Runperiod to be Repeated

OS:LifeCycleCost:Parameters,
  {a8ce31c8-7533-4ad7-aa7a-5380b4197455}, !- Handle
  ,                                       !- Analysis Type
  ,                                       !- Discounting Convention
  ,                                       !- Inflation Approach
  ,                                       !- Real Discount Rate
  ,                                       !- Nominal Discount Rate
  ,                                       !- Inflation
  ,                                       !- Base Date Month
  ,                                       !- Base Date Year
  ,                                       !- Service Date Month
  ,                                       !- Service Date Year
  ;                                       !- Length of Study Period in Years

OS:Rendering:Color,
  {35172f61-56c3-4d80-ae0b-4d63360afdad}, !- Handle
  Rendering Color 1,                      !- Name
  139,                                    !- Rendering Red Value
  0,                                      !- Rendering Green Value
  0,                                      !- Rendering Blue Value
  255;                                    !- Rendering Alpha Value

OS:SpaceType,
  {714f3598-ca42-4592-a196-6199d07d9ad1}, !- Handle
  elevator - ,                            !- Name
  ,                                       !- Default Construction Set Name
  {524d14c8-30a7-48b5-afad-3ee0cce93ee9}, !- Default Schedule Set Name
  {634f62d9-d69e-4f12-a62f-d9cbae01af5e}, !- Group Rendering Name
  {25cf1506-4778-40ab-9c7a-baee1289b313}, !- Design Specification Outdoor Air Object Name
  90.1-2013,                              !- Standards Template
  SmallHotel,                             !- Standards Building Type
  ElevatorCore;                           !- Standards Space Type

OS:Rendering:Color,
  {634f62d9-d69e-4f12-a62f-d9cbae01af5e}, !- Handle
  Rendering Color 2,                      !- Name
  222,                                    !- Rendering Red Value
  184,                                    !- Rendering Green Value
  135,                                    !- Rendering Blue Value
  255;                                    !- Rendering Alpha Value

OS:SpaceType,
  {58851430-e41d-48e3-9204-1d1b564a9735}, !- Handle
  stair - ,                               !- Name
  ,                                       !- Default Construction Set Name
  {caf4d1de-9f15-4920-9361-e5ce30249355}, !- Default Schedule Set Name
  {dd7adba3-1e0e-4ad9-9912-4ca73c00db5c}, !- Group Rendering Name
  {911e31f8-f1c4-42f2-b512-ec7fbde328d2}, !- Design Specification Outdoor Air Object Name
  90.1-2013,                              !- Standards Template
  SmallHotel,                             !- Standards Building Type
  Stair;                                  !- Standards Space Type

OS:Rendering:Color,
  {dd7adba3-1e0e-4ad9-9912-4ca73c00db5c}, !- Handle
  Rendering Color 3,                      !- Name
  184,                                    !- Rendering Red Value
  134,                                    !- Rendering Green Value
  11,                                     !- Rendering Blue Value
  255;                                    !- Rendering Alpha Value

OS:SpaceType,
  {83622af1-b14e-48d1-b091-d0d9681a5de2}, !- Handle
  coffee - ,                              !- Name
  ,                                       !- Default Construction Set Name
  {a46ce8f7-1c00-453f-97d6-e1bda015dd47}, !- Default Schedule Set Name
  {ce768d3c-e52e-4afa-b071-5d9c0fce73e1}, !- Group Rendering Name
  {7cc37d5a-71fb-47a5-8e0f-7556dd0269b6}, !- Design Specification Outdoor Air Object Name
  90.1-2013,                              !- Standards Template
  QuickServiceRestaurant,                 !- Standards Building Type
  Dining;                                 !- Standards Space Type

OS:Rendering:Color,
  {ce768d3c-e52e-4afa-b071-5d9c0fce73e1}, !- Handle
  Rendering Color 4,                      !- Name
  255,                                    !- Rendering Red Value
  255,                                    !- Rendering Green Value
  240,                                    !- Rendering Blue Value
  255;                                    !- Rendering Alpha Value

OS:SpaceType,
  {bc8a913a-5210-49b0-87bf-18f7c00f646c}, !- Handle
  mail - ,                                !- Name
  ,                                       !- Default Construction Set Name
  {47dc3132-627c-4eab-a7e4-7c5cc1590ef8}, !- Default Schedule Set Name
  {2f88e1b2-d365-4973-9c90-f7de82d21f15}, !- Group Rendering Name
  {658867a6-277a-423a-b355-063b6c4d7a04}, !- Design Specification Outdoor Air Object Name
  90.1-2013,                              !- Standards Template
  SmallHotel,                             !- Standards Building Type
  Storage;                                !- Standards Space Type

OS:Rendering:Color,
  {2f88e1b2-d365-4973-9c90-f7de82d21f15}, !- Handle
  Rendering Color 5,                      !- Name
  173,                                    !- Rendering Red Value
  216,                                    !- Rendering Green Value
  230,                                    !- Rendering Blue Value
  255;                                    !- Rendering Alpha Value

OS:SpaceType,
  {bad4439e-3588-4950-a30c-7bfd7333af17}, !- Handle
  community - ,                           !- Name
  ,                                       !- Default Construction Set Name
  {575fd95b-4e03-48aa-881d-99eca23f76bb}, !- Default Schedule Set Name
  {420057d7-59c8-45a0-9e25-073d4ef81c6a}, !- Group Rendering Name
  {431220ee-63d0-4d44-bb2d-402f1b6db9a3}, !- Design Specification Outdoor Air Object Name
  90.1-2013,                              !- Standards Template
  SmallHotel,                             !- Standards Building Type
  Meeting;                                !- Standards Space Type

OS:Rendering:Color,
  {420057d7-59c8-45a0-9e25-073d4ef81c6a}, !- Handle
  Rendering Color 6,                      !- Name
  218,                                    !- Rendering Red Value
  165,                                    !- Rendering Green Value
  32,                                     !- Rendering Blue Value
  255;                                    !- Rendering Alpha Value

OS:SpaceType,
  {34b49fae-674b-4892-be15-605c05eee15b}, !- Handle
  retail - ,                              !- Name
  ,                                       !- Default Construction Set Name
  {174428a8-4797-4704-9d4b-58ee1a3c9019}, !- Default Schedule Set Name
  {39d88523-3a28-431b-9b64-c173d59f6c45}, !- Group Rendering Name
  {ecf96f02-9325-4611-966e-a63034e8a9e6}, !- Design Specification Outdoor Air Object Name
  90.1-2013,                              !- Standards Template
  Retail,                                 !- Standards Building Type
  Core_Retail;                            !- Standards Space Type

OS:Rendering:Color,
  {39d88523-3a28-431b-9b64-c173d59f6c45}, !- Handle
  Rendering Color 7,                      !- Name
  205,                                    !- Rendering Red Value
  133,                                    !- Rendering Green Value
  63,                                     !- Rendering Blue Value
  255;                                    !- Rendering Alpha Value

OS:SpaceType,
  {13356299-baf8-484c-9eaa-1d333a316c81}, !- Handle
  garbage 2 - ,                           !- Name
  ,                                       !- Default Construction Set Name
  {33af7726-a0e8-4cf6-bbfc-32c9302e1802}, !- Default Schedule Set Name
  {e22b0848-191e-46ea-9644-28f2dd472017}, !- Group Rendering Name
  {fc598319-2ddc-4478-a65d-9e9451945288}, !- Design Specification Outdoor Air Object Name
  90.1-2013,                              !- Standards Template
  SmallHotel,                             !- Standards Building Type
  Storage;                                !- Standards Space Type

OS:Rendering:Color,
  {e22b0848-191e-46ea-9644-28f2dd472017}, !- Handle
  Rendering Color 8,                      !- Name
  240,                                    !- Rendering Red Value
  255,                                    !- Rendering Green Value
  240,                                    !- Rendering Blue Value
  255;                                    !- Rendering Alpha Value

OS:SpaceType,
  {e856b28a-e298-4640-8c8a-ee19a8560d15}, !- Handle
  gym 2 - ,                               !- Name
  ,                                       !- Default Construction Set Name
  {410b2735-d616-44b3-8292-df7195aa7725}, !- Default Schedule Set Name
  {934bd42a-0ab0-4390-b15a-b6c4d1e3dc04}, !- Group Rendering Name
  {7c5c33f1-2cb3-414b-bfbe-3257a4cf7e85}, !- Design Specification Outdoor Air Object Name
  90.1-2013,                              !- Standards Template
  SmallHotel,                             !- Standards Building Type
  Exercise;                               !- Standards Space Type

OS:Rendering:Color,
  {934bd42a-0ab0-4390-b15a-b6c4d1e3dc04}, !- Handle
  Rendering Color 9,                      !- Name
  72,                                     !- Rendering Red Value
  61,                                     !- Rendering Green Value
  139,                                    !- Rendering Blue Value
  255;                                    !- Rendering Alpha Value

OS:SpaceType,
  {fa66fd74-150a-4990-a8b1-10998fa556ca}, !- Handle
  office 2 - ,                            !- Name
  ,                                       !- Default Construction Set Name
  {4865eb9c-cc85-4fc3-9240-c6197761d2ed}, !- Default Schedule Set Name
  {803273d2-7003-4f62-b9c6-15f26c401b2e}, !- Group Rendering Name
  {1a950de5-108b-4394-a16a-190c5c87d670}, !- Design Specification Outdoor Air Object Name
  90.1-2013,                              !- Standards Template
  MidriseApartment,                       !- Standards Building Type
  Office;                                 !- Standards Space Type

OS:Rendering:Color,
  {803273d2-7003-4f62-b9c6-15f26c401b2e}, !- Handle
  Rendering Color 10,                     !- Name
  255,                                    !- Rendering Red Value
  0,                                      !- Rendering Green Value
  255,                                    !- Rendering Blue Value
  255;                                    !- Rendering Alpha Value

OS:SpaceType,
  {8d6f7c1e-5f11-45f9-9317-3078eee6e583}, !- Handle
  lobby - ,                               !- Name
  ,                                       !- Default Construction Set Name
  {74c71842-1d76-43ec-8cf2-8fcfe2e92969}, !- Default Schedule Set Name
  {e515507c-9889-442e-8361-cb7b23b23193}, !- Group Rendering Name
  {107ea8f2-6ddb-400b-9b59-f027f24ae78f}, !- Design Specification Outdoor Air Object Name
  90.1-2013,                              !- Standards Template
  Retail,                                 !- Standards Building Type
  Entry;                                  !- Standards Space Type

OS:Rendering:Color,
  {e515507c-9889-442e-8361-cb7b23b23193}, !- Handle
  Rendering Color 11,                     !- Name
  119,                                    !- Rendering Red Value
  136,                                    !- Rendering Green Value
  153,                                    !- Rendering Blue Value
  255;                                    !- Rendering Alpha Value

OS:SpaceType,
  {a8f5b834-9f40-45ee-8569-cd47b984091f}, !- Handle
  bathroom - ,                            !- Name
  ,                                       !- Default Construction Set Name
  {2afb240b-beed-4e17-abb3-63fcdd435f57}, !- Default Schedule Set Name
  {cf5c76ef-e511-4f24-9936-38e4ee127d4b}, !- Group Rendering Name
  {f3f304b4-26f2-44ef-99dd-6ba193f5a034}, !- Design Specification Outdoor Air Object Name
  90.1-2013,                              !- Standards Template
  SmallHotel,                             !- Standards Building Type
  PublicRestroom;                         !- Standards Space Type

OS:Rendering:Color,
  {cf5c76ef-e511-4f24-9936-38e4ee127d4b}, !- Handle
  Rendering Color 12,                     !- Name
  105,                                    !- Rendering Red Value
  105,                                    !- Rendering Green Value
  105,                                    !- Rendering Blue Value
  255;                                    !- Rendering Alpha Value

OS:SpaceType,
  {712459b7-0673-408c-925d-b392e0d73c3f}, !- Handle
  corridor 5 - ,                          !- Name
  ,                                       !- Default Construction Set Name
  {d46ca4a2-5323-4019-81b9-722d176b0d37}, !- Default Schedule Set Name
  {4b0b2ba9-f838-4b27-8d0c-b78879330a4a}, !- Group Rendering Name
  {6a591fc4-0eed-437f-a546-ec4548c3f35c}, !- Design Specification Outdoor Air Object Name
  90.1-2013,                              !- Standards Template
  MidriseApartment,                       !- Standards Building Type
  Corridor;                               !- Standards Space Type

OS:Rendering:Color,
  {4b0b2ba9-f838-4b27-8d0c-b78879330a4a}, !- Handle
  Rendering Color 13,                     !- Name
  240,                                    !- Rendering Red Value
  128,                                    !- Rendering Green Value
  128,                                    !- Rendering Blue Value
  255;                                    !- Rendering Alpha Value

OS:SurfaceConvectionAlgorithm:Outside,
  {64755c1c-03b5-4be2-9eb1-1ca2b8d79ef5}, !- Handle
  DOE-2;                                  !- Algorithm

OS:SurfaceConvectionAlgorithm:Inside,
  {f0891683-8c09-49a8-b370-6a5a9fbaf2d9}, !- Handle
  TARP;                                   !- Algorithm

OS:ZoneCapacitanceMultiplier:ResearchSpecial,
  {fccba8a6-1d15-4dbe-83f4-450b7c903561}, !- Handle
  ,                                       !- Temperature Capacity Multiplier
  15,                                     !- Humidity Capacity Multiplier
  ;                                       !- Carbon Dioxide Capacity Multiplier

OS:Space,
  {8c898012-1cd0-47fe-b450-f56180ad3b0a}, !- Handle
  0_Bdrm_3_4,                             !- Name
  {a7611e0d-0529-47c9-9b1b-ebfb54a88bea}, !- Space Type Name
  ,                                       !- Default Construction Set Name
  ,                                       !- Default Schedule Set Name
  ,                                       !- Direction of Relative North {deg}
  ,                                       !- X Origin {m}
  ,                                       !- Y Origin {m}
  ,                                       !- Z Origin {m}
  {fbfae1d0-b8be-4a80-b038-662d0a8420ee}, !- Building Story Name
  {d5133f83-74d0-4b96-bfd4-fa380b0c35b7}, !- Thermal Zone Name
  ,                                       !- Part of Total Floor Area
  ,                                       !- Design Specification Outdoor Air Object Name
  {989579f6-45ac-401e-99e6-c5f195470788}; !- Building Unit Name

OS:Surface,
  {44b718ec-da7f-4d78-835b-3c85b308fd9f}, !- Handle
  Face 495,                               !- Name
  Floor,                                  !- Surface Type
  ,                                       !- Construction Name
  {8c898012-1cd0-47fe-b450-f56180ad3b0a}, !- Space Name
  Surface,                                !- Outside Boundary Condition
  {09de6301-201f-499e-aa15-8d1cf0613756}, !- Outside Boundary Condition Object
  NoSun,                                  !- Sun Exposure
  NoWind,                                 !- Wind Exposure
  ,                                       !- View Factor to Ground
  ,                                       !- Number of Vertices
  42.672, 19.812, 10.3632,                !- X,Y,Z Vertex 1 {m}
  42.672, 10.668, 10.3632,                !- X,Y,Z Vertex 2 {m}
  38.1, 10.668, 10.3632,                  !- X,Y,Z Vertex 3 {m}
  38.1, 19.812, 10.3632;                  !- X,Y,Z Vertex 4 {m}

OS:Surface,
  {61f4d3ae-9d5e-4192-a23e-64c15dca8a7f}, !- Handle
  Face 496,                               !- Name
  RoofCeiling,                            !- Surface Type
  ,                                       !- Construction Name
  {8c898012-1cd0-47fe-b450-f56180ad3b0a}, !- Space Name
  Outdoors,                               !- Outside Boundary Condition
  ,                                       !- Outside Boundary Condition Object
  SunExposed,                             !- Sun Exposure
  WindExposed,                            !- Wind Exposure
  ,                                       !- View Factor to Ground
  ,                                       !- Number of Vertices
  38.1, 19.812, 13.4112,                  !- X,Y,Z Vertex 1 {m}
  38.1, 10.668, 13.4112,                  !- X,Y,Z Vertex 2 {m}
  42.672, 10.668, 13.4112,                !- X,Y,Z Vertex 3 {m}
  42.672, 19.812, 13.4112;                !- X,Y,Z Vertex 4 {m}

OS:Surface,
  {a0f406cd-f27a-41b2-ab9d-583bb16806e7}, !- Handle
  Face 497,                               !- Name
  Wall,                                   !- Surface Type
  ,                                       !- Construction Name
  {8c898012-1cd0-47fe-b450-f56180ad3b0a}, !- Space Name
  Surface,                                !- Outside Boundary Condition
  {bb137735-8ef7-4c99-b24f-6f414576903c}, !- Outside Boundary Condition Object
  NoSun,                                  !- Sun Exposure
  NoWind,                                 !- Wind Exposure
  ,                                       !- View Factor to Ground
  ,                                       !- Number of Vertices
  42.672, 19.812, 13.4112,                !- X,Y,Z Vertex 1 {m}
  42.672, 10.668, 13.4112,                !- X,Y,Z Vertex 2 {m}
  42.672, 10.668, 10.3632,                !- X,Y,Z Vertex 3 {m}
  42.672, 19.812, 10.3632;                !- X,Y,Z Vertex 4 {m}

OS:Surface,
  {af6b191c-b876-433f-b5aa-b8ce10706575}, !- Handle
  Face 498,                               !- Name
  Wall,                                   !- Surface Type
  ,                                       !- Construction Name
  {8c898012-1cd0-47fe-b450-f56180ad3b0a}, !- Space Name
  Surface,                                !- Outside Boundary Condition
  {31746019-cd81-4659-9779-14217f7077c3}, !- Outside Boundary Condition Object
  NoSun,                                  !- Sun Exposure
  NoWind,                                 !- Wind Exposure
  ,                                       !- View Factor to Ground
  ,                                       !- Number of Vertices
  42.672, 10.668, 13.4112,                !- X,Y,Z Vertex 1 {m}
  38.1, 10.668, 13.4112,                  !- X,Y,Z Vertex 2 {m}
  38.1, 10.668, 10.3632,                  !- X,Y,Z Vertex 3 {m}
  42.672, 10.668, 10.3632;                !- X,Y,Z Vertex 4 {m}

OS:Surface,
  {1fa0ed07-2a5c-4a44-82d9-3798be412e39}, !- Handle
  Face 499,                               !- Name
  Wall,                                   !- Surface Type
  ,                                       !- Construction Name
  {8c898012-1cd0-47fe-b450-f56180ad3b0a}, !- Space Name
  Surface,                                !- Outside Boundary Condition
  {95d423bb-3312-457c-a672-f24f9c6a430e}, !- Outside Boundary Condition Object
  NoSun,                                  !- Sun Exposure
  NoWind,                                 !- Wind Exposure
  ,                                       !- View Factor to Ground
  ,                                       !- Number of Vertices
  38.1, 10.668, 13.4112,                  !- X,Y,Z Vertex 1 {m}
  38.1, 19.812, 13.4112,                  !- X,Y,Z Vertex 2 {m}
  38.1, 19.812, 10.3632,                  !- X,Y,Z Vertex 3 {m}
  38.1, 10.668, 10.3632;                  !- X,Y,Z Vertex 4 {m}

OS:Surface,
  {0b9df7ff-5cf5-4e47-ab55-e8b0d5b54a78}, !- Handle
  Face 500,                               !- Name
  Wall,                                   !- Surface Type
  ,                                       !- Construction Name
  {8c898012-1cd0-47fe-b450-f56180ad3b0a}, !- Space Name
  Outdoors,                               !- Outside Boundary Condition
  ,                                       !- Outside Boundary Condition Object
  SunExposed,                             !- Sun Exposure
  WindExposed,                            !- Wind Exposure
  ,                                       !- View Factor to Ground
  ,                                       !- Number of Vertices
  38.1, 19.812, 13.4112,                  !- X,Y,Z Vertex 1 {m}
  42.672, 19.812, 13.4112,                !- X,Y,Z Vertex 2 {m}
  42.672, 19.812, 10.3632,                !- X,Y,Z Vertex 3 {m}
  38.1, 19.812, 10.3632;                  !- X,Y,Z Vertex 4 {m}

OS:SpaceType,
  {a7611e0d-0529-47c9-9b1b-ebfb54a88bea}, !- Handle
  living - ,                              !- Name
  ,                                       !- Default Construction Set Name
  {d14eff7b-c434-4abc-bf03-441dd3869851}, !- Default Schedule Set Name
  {93f2f0ec-3456-4309-9732-19199e190266}, !- Group Rendering Name
  {5b5de31a-21c3-4f9e-87fe-07ce18c73457}, !- Design Specification Outdoor Air Object Name
  ,                                       !- Standards Template
  ,                                       !- Standards Building Type
  Apartment;                              !- Standards Space Type

OS:Rendering:Color,
  {93f2f0ec-3456-4309-9732-19199e190266}, !- Handle
  Rendering Color 14,                     !- Name
  136,                                    !- Rendering Red Value
  204,                                    !- Rendering Green Value
  238;                                    !- Rendering Blue Value

OS:BuildingStory,
  {fbfae1d0-b8be-4a80-b038-662d0a8420ee}, !- Handle
  Story 4,                                !- Name
  10.3632,                                !- Nominal Z Coordinate {m}
  3.048,                                  !- Nominal Floor to Floor Height {m}
  ,                                       !- Default Construction Set Name
  ,                                       !- Default Schedule Set Name
  {ceb2741e-83e5-4f0f-94dd-7a86ebf0fa8d}, !- Group Rendering Name
  3.048;                                  !- Nominal Floor to Ceiling Height {m}

OS:Rendering:Color,
  {ceb2741e-83e5-4f0f-94dd-7a86ebf0fa8d}, !- Handle
  Rendering Color 15,                     !- Name
  17,                                     !- Rendering Red Value
  119,                                    !- Rendering Green Value
  51;                                     !- Rendering Blue Value

OS:BuildingUnit,
  {989579f6-45ac-401e-99e6-c5f195470788}, !- Handle
  Building Unit 011,                      !- Name
  {0486516c-574f-45e7-a610-1ea01416bb0d}, !- Rendering Color
  ;                                       !- Building Unit Type

OS:Rendering:Color,
  {0486516c-574f-45e7-a610-1ea01416bb0d}, !- Handle
  Rendering Color 16,                     !- Name
  136,                                    !- Rendering Red Value
  204,                                    !- Rendering Green Value
  238;                                    !- Rendering Blue Value

OS:Space,
  {d6bd3990-561b-4e4a-bca7-ddab91b3f1fc}, !- Handle
  0_Bdrm_1_2,                             !- Name
  {a7611e0d-0529-47c9-9b1b-ebfb54a88bea}, !- Space Type Name
  ,                                       !- Default Construction Set Name
  ,                                       !- Default Schedule Set Name
  ,                                       !- Direction of Relative North {deg}
  ,                                       !- X Origin {m}
  ,                                       !- Y Origin {m}
  ,                                       !- Z Origin {m}
  {85dd15a8-967d-4ef5-bc8d-7a8f1676bb2c}, !- Building Story Name
  {6e26d5cd-327f-42ed-8d2e-3a4718b5a242}, !- Thermal Zone Name
  ,                                       !- Part of Total Floor Area
  ,                                       !- Design Specification Outdoor Air Object Name
  {22071af9-8888-439e-b775-94bfadd33bc8}; !- Building Unit Name

OS:Surface,
  {d07bfc82-7f8e-45b7-8ffb-f845002b18ee}, !- Handle
  Face 248,                               !- Name
  Wall,                                   !- Surface Type
  ,                                       !- Construction Name
  {d6bd3990-561b-4e4a-bca7-ddab91b3f1fc}, !- Space Name
  Surface,                                !- Outside Boundary Condition
  {090bc854-227c-41ae-8c60-859e95f68779}, !- Outside Boundary Condition Object
  NoSun,                                  !- Sun Exposure
  NoWind,                                 !- Wind Exposure
  ,                                       !- View Factor to Ground
  ,                                       !- Number of Vertices
  48.768, 6.096, 7.3152,                  !- X,Y,Z Vertex 1 {m}