
OS:Version,
  {9c9ac75d-3bd0-4693-8ff7-930fa318ebb0}, !- Handle
  3.0.1;                                  !- Version Identifier

OS:Schedule:Constant,
  {55fedaae-d10e-4283-8489-8b6237ed81d8}, !- Handle
  Always On Discrete,                     !- Name
  {693b2109-fbe9-4984-bc19-41062ab09214}, !- Schedule Type Limits Name
  1;                                      !- Value

OS:ScheduleTypeLimits,
  {693b2109-fbe9-4984-bc19-41062ab09214}, !- Handle
  Always On Discrete Limits,              !- Name
  0,                                      !- Lower Limit Value
  1,                                      !- Upper Limit Value
  Discrete,                               !- Numeric Type
  Availability;                           !- Unit Type

OS:Site,
  {bc874655-a927-4872-a278-1347186bb1d9}, !- Handle
  Los Angeles Intl Arpt_CA_USA,           !- Name
  33.93,                                  !- Latitude {deg}
  -118.4,                                 !- Longitude {deg}
  -8,                                     !- Time Zone {hr}
  30,                                     !- Elevation {m}
  City;                                   !- Terrain

OS:YearDescription,
  {9116ce1c-534f-4b3a-9d15-2bb1a805c7e1}, !- Handle
  2019,                                   !- Calendar Year
  ,                                       !- Day of Week for Start Day
  ;                                       !- Is Leap Year

OS:ClimateZones,
  {dd268d6b-2da7-4abc-b8ad-35d0988c56cd}, !- Handle
  ASHRAE,                                 !- Climate Zone Institution Name 1
  ANSI/ASHRAE Standard 169,               !- Climate Zone Document Name 1
  2006,                                   !- Climate Zone Document Year 1
  3C;                                     !- Climate Zone Value 1

OS:Building,
  {4434130b-100b-4e19-b646-32bcd4b44eba}, !- Handle
  Building 1,                             !- Name
  ,                                       !- Building Sector Type
  ,                                       !- North Axis {deg}
  ,                                       !- Nominal Floor to Floor Height {m}
  ,                                       !- Space Type Name
  {d7088560-df48-4ebd-bf33-80b582824095}, !- Default Construction Set Name
  ,                                       !- Default Schedule Set Name
  ,                                       !- Standards Number of Stories
  3,                                      !- Standards Number of Above Ground Stories
  ,                                       !- Standards Template
  MidriseApartment;                       !- Standards Building Type

OS:Facility,
  {01cd2b0a-8ee0-4ab6-a2fb-9f6c7d21094d}; !- Handle

OS:SimulationControl,
  {30e9303f-ed23-491c-b310-8ef7274e967f}, !- Handle
  ,                                       !- Do Zone Sizing Calculation
  ,                                       !- Do System Sizing Calculation
  ,                                       !- Do Plant Sizing Calculation
  No,                                     !- Run Simulation for Sizing Periods
  Yes;                                    !- Run Simulation for Weather File Run Periods

OS:Sizing:Parameters,
  {c983733e-8a2d-428d-8380-a9c380f3d01c}, !- Handle
  1.25,                                   !- Heating Sizing Factor
  1.15;                                   !- Cooling Sizing Factor

OS:Timestep,
  {7a470c9d-4813-47b4-b276-325100b7b62f}, !- Handle
  1;                                      !- Number of Timesteps per Hour

OS:ShadowCalculation,
  {21696cf9-7a12-43bf-ac4c-50d1be8bf2fd}, !- Handle
  PolygonClipping,                        !- Shading Calculation Method
  ,                                       !- Shading Calculation Update Frequency Method
  20,                                     !- Shading Calculation Update Frequency
  200,                                    !- Maximum Figures in Shadow Overlap Calculations
  ,                                       !- Polygon Clipping Algorithm
  512,                                    !- Pixel Counting Resolution
  ,                                       !- Sky Diffuse Modeling Algorithm
  No,                                     !- Output External Shading Calculation Results
  No,                                     !- Disable Self-Shading Within Shading Zone Groups
  No;                                     !- Disable Self-Shading From Shading Zone Groups to Other Zones

OS:HeatBalanceAlgorithm,
  {09f4a614-27ba-43a9-a0ac-4379e03c44e8}, !- Handle
  ConductionTransferFunction,             !- Algorithm
  200;                                    !- Surface Temperature Upper Limit {C}

OS:RunPeriod,
  {322b0b21-e55e-459f-b4f2-853d2d37fd9a}, !- Handle
  Run Period 1,                           !- Name
  1,                                      !- Begin Month
  1,                                      !- Begin Day of Month
  12,                                     !- End Month
  31,                                     !- End Day of Month
  ,                                       !- Use Weather File Holidays and Special Days
  ,                                       !- Use Weather File Daylight Saving Period
  ,                                       !- Apply Weekend Holiday Rule
  ,                                       !- Use Weather File Rain Indicators
  ,                                       !- Use Weather File Snow Indicators
  ;                                       !- Number of Times Runperiod to be Repeated

OS:LifeCycleCost:Parameters,
  {a8ce31c8-7533-4ad7-aa7a-5380b4197455}, !- Handle
  ,                                       !- Analysis Type
  ,                                       !- Discounting Convention
  ,                                       !- Inflation Approach
  ,                                       !- Real Discount Rate
  ,                                       !- Nominal Discount Rate
  ,                                       !- Inflation
  ,                                       !- Base Date Month
  ,                                       !- Base Date Year
  ,                                       !- Service Date Month
  ,                                       !- Service Date Year
  ;                                       !- Length of Study Period in Years

OS:Rendering:Color,
  {35172f61-56c3-4d80-ae0b-4d63360afdad}, !- Handle
  Rendering Color 1,                      !- Name
  139,                                    !- Rendering Red Value
  0,                                      !- Rendering Green Value
  0,                                      !- Rendering Blue Value
  255;                                    !- Rendering Alpha Value

OS:SpaceType,
  {714f3598-ca42-4592-a196-6199d07d9ad1}, !- Handle
  elevator - ,                            !- Name
  ,                                       !- Default Construction Set Name
  {b07e40e4-cf91-4112-83d0-5abc8830a39f}, !- Default Schedule Set Name
  {634f62d9-d69e-4f12-a62f-d9cbae01af5e}, !- Group Rendering Name
  {6102627d-8424-4d5f-be80-9a3ded7b25ce}, !- Design Specification Outdoor Air Object Name
  90.1-2013,                              !- Standards Template
  SmallHotel,                             !- Standards Building Type
  ElevatorCore;                           !- Standards Space Type

OS:Rendering:Color,
  {634f62d9-d69e-4f12-a62f-d9cbae01af5e}, !- Handle
  Rendering Color 2,                      !- Name
  222,                                    !- Rendering Red Value
  184,                                    !- Rendering Green Value
  135,                                    !- Rendering Blue Value
  255;                                    !- Rendering Alpha Value

OS:SpaceType,
  {58851430-e41d-48e3-9204-1d1b564a9735}, !- Handle
  stair - ,                               !- Name
  ,                                       !- Default Construction Set Name
  {39ecb733-6ed3-4251-a819-070dc91aaba3}, !- Default Schedule Set Name
  {dd7adba3-1e0e-4ad9-9912-4ca73c00db5c}, !- Group Rendering Name
  {df8e11dc-3ed3-406b-b3a3-75ebda8ec141}, !- Design Specification Outdoor Air Object Name
  90.1-2013,                              !- Standards Template
  SmallHotel,                             !- Standards Building Type
  Stair;                                  !- Standards Space Type

OS:Rendering:Color,
  {dd7adba3-1e0e-4ad9-9912-4ca73c00db5c}, !- Handle
  Rendering Color 3,                      !- Name
  184,                                    !- Rendering Red Value
  134,                                    !- Rendering Green Value
  11,                                     !- Rendering Blue Value
  255;                                    !- Rendering Alpha Value

OS:SpaceType,
  {83622af1-b14e-48d1-b091-d0d9681a5de2}, !- Handle
  coffee - ,                              !- Name
  ,                                       !- Default Construction Set Name
  {532c72eb-5b67-4a2b-aabc-30fab1c82f18}, !- Default Schedule Set Name
  {ce768d3c-e52e-4afa-b071-5d9c0fce73e1}, !- Group Rendering Name
  {890ba035-bf7a-4953-92ad-0ddfdf87ab04}, !- Design Specification Outdoor Air Object Name
  90.1-2013,                              !- Standards Template
  QuickServiceRestaurant,                 !- Standards Building Type
  Dining;                                 !- Standards Space Type

OS:Rendering:Color,
  {ce768d3c-e52e-4afa-b071-5d9c0fce73e1}, !- Handle
  Rendering Color 4,                      !- Name
  255,                                    !- Rendering Red Value
  255,                                    !- Rendering Green Value
  240,                                    !- Rendering Blue Value
  255;                                    !- Rendering Alpha Value

OS:SpaceType,
  {bc8a913a-5210-49b0-87bf-18f7c00f646c}, !- Handle
  mail - ,                                !- Name
  ,                                       !- Default Construction Set Name
  {e3c2dcc0-3fe8-40a8-8a13-0e76f27b5d35}, !- Default Schedule Set Name
  {2f88e1b2-d365-4973-9c90-f7de82d21f15}, !- Group Rendering Name
  {131b66e0-1ebf-4224-a589-1ddb2fc2f277}, !- Design Specification Outdoor Air Object Name
  90.1-2013,                              !- Standards Template
  SmallHotel,                             !- Standards Building Type
  Storage;                                !- Standards Space Type

OS:Rendering:Color,
  {2f88e1b2-d365-4973-9c90-f7de82d21f15}, !- Handle
  Rendering Color 5,                      !- Name
  173,                                    !- Rendering Red Value
  216,                                    !- Rendering Green Value
  230,                                    !- Rendering Blue Value
  255;                                    !- Rendering Alpha Value

OS:SpaceType,
  {bad4439e-3588-4950-a30c-7bfd7333af17}, !- Handle
  community - ,                           !- Name
  ,                                       !- Default Construction Set Name
  {ab4dc502-dc13-409e-a014-f7f57995c861}, !- Default Schedule Set Name
  {420057d7-59c8-45a0-9e25-073d4ef81c6a}, !- Group Rendering Name
  {8767701c-2ab0-41ff-bfc6-1e9dc5c91eeb}, !- Design Specification Outdoor Air Object Name
  90.1-2013,                              !- Standards Template
  SmallHotel,                             !- Standards Building Type
  Meeting;                                !- Standards Space Type

OS:Rendering:Color,
  {420057d7-59c8-45a0-9e25-073d4ef81c6a}, !- Handle
  Rendering Color 6,                      !- Name
  218,                                    !- Rendering Red Value
  165,                                    !- Rendering Green Value
  32,                                     !- Rendering Blue Value
  255;                                    !- Rendering Alpha Value

OS:SpaceType,
  {34b49fae-674b-4892-be15-605c05eee15b}, !- Handle
  retail - ,                              !- Name
  ,                                       !- Default Construction Set Name
  {e2458f86-7d90-48a8-a7f3-932fd106c905}, !- Default Schedule Set Name
  {39d88523-3a28-431b-9b64-c173d59f6c45}, !- Group Rendering Name
  {291ed56d-43ee-42b8-8cd4-c90e0b214a8a}, !- Design Specification Outdoor Air Object Name
  90.1-2013,                              !- Standards Template
  Retail,                                 !- Standards Building Type
  Core_Retail;                            !- Standards Space Type

OS:Rendering:Color,
  {39d88523-3a28-431b-9b64-c173d59f6c45}, !- Handle
  Rendering Color 7,                      !- Name
  205,                                    !- Rendering Red Value
  133,                                    !- Rendering Green Value
  63,                                     !- Rendering Blue Value
  255;                                    !- Rendering Alpha Value

OS:SpaceType,
  {13356299-baf8-484c-9eaa-1d333a316c81}, !- Handle
  garbage 2 - ,                           !- Name
  ,                                       !- Default Construction Set Name
  {232e1969-d261-469e-8231-994b2147017c}, !- Default Schedule Set Name
  {e22b0848-191e-46ea-9644-28f2dd472017}, !- Group Rendering Name
  {1ccc0cfc-2e66-492d-ae33-dce8c75a33c5}, !- Design Specification Outdoor Air Object Name
  90.1-2013,                              !- Standards Template
  SmallHotel,                             !- Standards Building Type
  Storage;                                !- Standards Space Type

OS:Rendering:Color,
  {e22b0848-191e-46ea-9644-28f2dd472017}, !- Handle
  Rendering Color 8,                      !- Name
  240,                                    !- Rendering Red Value
  255,                                    !- Rendering Green Value
  240,                                    !- Rendering Blue Value
  255;                                    !- Rendering Alpha Value

OS:SpaceType,
  {e856b28a-e298-4640-8c8a-ee19a8560d15}, !- Handle
  gym 2 - ,                               !- Name
  ,                                       !- Default Construction Set Name
  {81ac4594-4d10-49f7-af09-3302702af311}, !- Default Schedule Set Name
  {934bd42a-0ab0-4390-b15a-b6c4d1e3dc04}, !- Group Rendering Name
  {a5debead-9df2-4a08-9d49-2ac84375e596}, !- Design Specification Outdoor Air Object Name
  90.1-2013,                              !- Standards Template
  SmallHotel,                             !- Standards Building Type
  Exercise;                               !- Standards Space Type

OS:Rendering:Color,
  {934bd42a-0ab0-4390-b15a-b6c4d1e3dc04}, !- Handle
  Rendering Color 9,                      !- Name
  72,                                     !- Rendering Red Value
  61,                                     !- Rendering Green Value
  139,                                    !- Rendering Blue Value
  255;                                    !- Rendering Alpha Value

OS:SpaceType,
  {fa66fd74-150a-4990-a8b1-10998fa556ca}, !- Handle
  office 2 - ,                            !- Name
  ,                                       !- Default Construction Set Name
  {1719dc3d-257c-41e4-94ec-0264f317343c}, !- Default Schedule Set Name
  {803273d2-7003-4f62-b9c6-15f26c401b2e}, !- Group Rendering Name
  {4a47053f-172f-48aa-bc88-b4090d6df0e0}, !- Design Specification Outdoor Air Object Name
  90.1-2013,                              !- Standards Template
  MidriseApartment,                       !- Standards Building Type
  Office;                                 !- Standards Space Type

OS:Rendering:Color,
  {803273d2-7003-4f62-b9c6-15f26c401b2e}, !- Handle
  Rendering Color 10,                     !- Name
  255,                                    !- Rendering Red Value
  0,                                      !- Rendering Green Value
  255,                                    !- Rendering Blue Value
  255;                                    !- Rendering Alpha Value

OS:SpaceType,
  {8d6f7c1e-5f11-45f9-9317-3078eee6e583}, !- Handle
  lobby - ,                               !- Name
  ,                                       !- Default Construction Set Name
  {f90a61fb-45a0-49f4-921b-1f67dc37407c}, !- Default Schedule Set Name
  {e515507c-9889-442e-8361-cb7b23b23193}, !- Group Rendering Name
  {b02c7639-cf7e-4af4-a546-9567f495839e}, !- Design Specification Outdoor Air Object Name
  90.1-2013,                              !- Standards Template
  Retail,                                 !- Standards Building Type
  Entry;                                  !- Standards Space Type

OS:Rendering:Color,
  {e515507c-9889-442e-8361-cb7b23b23193}, !- Handle
  Rendering Color 11,                     !- Name
  119,                                    !- Rendering Red Value
  136,                                    !- Rendering Green Value
  153,                                    !- Rendering Blue Value
  255;                                    !- Rendering Alpha Value

OS:SpaceType,
  {a8f5b834-9f40-45ee-8569-cd47b984091f}, !- Handle
  bathroom - ,                            !- Name
  ,                                       !- Default Construction Set Name
  {b7ce7028-f46f-49af-896d-b8ef35c3bb28}, !- Default Schedule Set Name
  {cf5c76ef-e511-4f24-9936-38e4ee127d4b}, !- Group Rendering Name
  {d19b6a26-0826-4c37-8e35-01f1d26c99ac}, !- Design Specification Outdoor Air Object Name
  90.1-2013,                              !- Standards Template
  SmallHotel,                             !- Standards Building Type
  PublicRestroom;                         !- Standards Space Type

OS:Rendering:Color,
  {cf5c76ef-e511-4f24-9936-38e4ee127d4b}, !- Handle
  Rendering Color 12,                     !- Name
  105,                                    !- Rendering Red Value
  105,                                    !- Rendering Green Value
  105,                                    !- Rendering Blue Value
  255;                                    !- Rendering Alpha Value

OS:SpaceType,
  {712459b7-0673-408c-925d-b392e0d73c3f}, !- Handle
  corridor 5 - ,                          !- Name
  ,                                       !- Default Construction Set Name
  {72637b6e-267e-4dc3-bc9c-093fe2c4efcd}, !- Default Schedule Set Name
  {4b0b2ba9-f838-4b27-8d0c-b78879330a4a}, !- Group Rendering Name
  {0d066c9e-8710-45ac-8836-9211e4ba60e7}, !- Design Specification Outdoor Air Object Name
  90.1-2013,                              !- Standards Template
  MidriseApartment,                       !- Standards Building Type
  Corridor;                               !- Standards Space Type

OS:Rendering:Color,
  {4b0b2ba9-f838-4b27-8d0c-b78879330a4a}, !- Handle
  Rendering Color 13,                     !- Name
  240,                                    !- Rendering Red Value
  128,                                    !- Rendering Green Value
  128,                                    !- Rendering Blue Value
  255;                                    !- Rendering Alpha Value

OS:SurfaceConvectionAlgorithm:Outside,
  {9c3bd04b-5045-44d2-b474-acba516b13f0}, !- Handle
  DOE-2;                                  !- Algorithm

OS:SurfaceConvectionAlgorithm:Inside,
  {3b159bea-ec39-4bf5-9491-2e3847a4c07f}, !- Handle
  TARP;                                   !- Algorithm

OS:ZoneCapacitanceMultiplier:ResearchSpecial,
  {76c9b549-228b-4139-b159-3f1f02cd8505}, !- Handle
  ,                                       !- Temperature Capacity Multiplier
  15,                                     !- Humidity Capacity Multiplier
  ;                                       !- Carbon Dioxide Capacity Multiplier

OS:Space,
  {8184bb35-d235-4d34-8ac0-71b1ed7ce552}, !- Handle
  0_Bdrm_2_4,                             !- Name
  {9be2e949-2ade-4ee5-98d5-3ea7ec2fa748}, !- Space Type Name
  ,                                       !- Default Construction Set Name
  ,                                       !- Default Schedule Set Name
  ,                                       !- Direction of Relative North {deg}
  ,                                       !- X Origin {m}
  ,                                       !- Y Origin {m}
  ,                                       !- Z Origin {m}
  {f184c27a-154f-4e36-81ca-0b00ef10c06c}, !- Building Story Name
  {1c11b555-b572-4ece-abe7-41a6961c5469}, !- Thermal Zone Name
  ,                                       !- Part of Total Floor Area
  ,                                       !- Design Specification Outdoor Air Object Name
  {e006d2c1-a667-4123-8aba-db02149a4508}; !- Building Unit Name

OS:Surface,
  {c5a62cd6-ffd9-4228-91db-d2bda5333341}, !- Handle
  Face 501,                               !- Name
  Floor,                                  !- Surface Type
  ,                                       !- Construction Name
  {8184bb35-d235-4d34-8ac0-71b1ed7ce552}, !- Space Name
  Surface,                                !- Outside Boundary Condition
  {7810280c-f7eb-4349-b2a4-cbf735558542}, !- Outside Boundary Condition Object
  NoSun,                                  !- Sun Exposure
  NoWind,                                 !- Wind Exposure
  ,                                       !- View Factor to Ground
  ,                                       !- Number of Vertices
  47.244, 19.812, 10.3632,                !- X,Y,Z Vertex 1 {m}
  47.244, 10.668, 10.3632,                !- X,Y,Z Vertex 2 {m}
  42.672, 10.668, 10.3632,                !- X,Y,Z Vertex 3 {m}
  42.672, 19.812, 10.3632;                !- X,Y,Z Vertex 4 {m}

OS:Surface,
  {83d56cfc-5659-41e3-8180-2a9e9a47a5c1}, !- Handle
  Face 502,                               !- Name
  RoofCeiling,                            !- Surface Type
  ,                                       !- Construction Name
  {8184bb35-d235-4d34-8ac0-71b1ed7ce552}, !- Space Name
  Outdoors,                               !- Outside Boundary Condition
  ,                                       !- Outside Boundary Condition Object
  SunExposed,                             !- Sun Exposure
  WindExposed,                            !- Wind Exposure
  ,                                       !- View Factor to Ground
  ,                                       !- Number of Vertices
  42.672, 19.812, 13.4112,                !- X,Y,Z Vertex 1 {m}
  42.672, 10.668, 13.4112,                !- X,Y,Z Vertex 2 {m}
  47.244, 10.668, 13.4112,                !- X,Y,Z Vertex 3 {m}
  47.244, 19.812, 13.4112;                !- X,Y,Z Vertex 4 {m}

OS:Surface,
  {0382f9ca-ce90-4506-8d15-441c9ef0828d}, !- Handle
  Face 503,                               !- Name
  Wall,                                   !- Surface Type
  ,                                       !- Construction Name
  {8184bb35-d235-4d34-8ac0-71b1ed7ce552}, !- Space Name
  Surface,                                !- Outside Boundary Condition
  {9b2003c4-1827-4106-bfb9-7c05d88bf57b}, !- Outside Boundary Condition Object
  NoSun,                                  !- Sun Exposure
  NoWind,                                 !- Wind Exposure
  ,                                       !- View Factor to Ground
  ,                                       !- Number of Vertices
  47.244, 19.812, 13.4112,                !- X,Y,Z Vertex 1 {m}
  47.244, 10.668, 13.4112,                !- X,Y,Z Vertex 2 {m}
  47.244, 10.668, 10.3632,                !- X,Y,Z Vertex 3 {m}
  47.244, 19.812, 10.3632;                !- X,Y,Z Vertex 4 {m}

OS:Surface,
  {75d27a65-50de-4de1-afb3-e8a32bfce52f}, !- Handle
  Face 505,                               !- Name
  Wall,                                   !- Surface Type
  ,                                       !- Construction Name
  {8184bb35-d235-4d34-8ac0-71b1ed7ce552}, !- Space Name
  Surface,                                !- Outside Boundary Condition
  {b7c5954e-d655-4d4e-becb-c40271c27599}, !- Outside Boundary Condition Object
  NoSun,                                  !- Sun Exposure
  NoWind,                                 !- Wind Exposure
  ,                                       !- View Factor to Ground
  ,                                       !- Number of Vertices
  42.672, 10.668, 13.4112,                !- X,Y,Z Vertex 1 {m}
  42.672, 19.812, 13.4112,                !- X,Y,Z Vertex 2 {m}
  42.672, 19.812, 10.3632,                !- X,Y,Z Vertex 3 {m}
  42.672, 10.668, 10.3632;                !- X,Y,Z Vertex 4 {m}

OS:Surface,
  {98c47a78-1bbb-4540-9231-8314435e4a5e}, !- Handle
  Face 506,                               !- Name
  Wall,                                   !- Surface Type
  ,                                       !- Construction Name
  {8184bb35-d235-4d34-8ac0-71b1ed7ce552}, !- Space Name
  Outdoors,                               !- Outside Boundary Condition
  ,                                       !- Outside Boundary Condition Object
  SunExposed,                             !- Sun Exposure
  WindExposed,                            !- Wind Exposure
  ,                                       !- View Factor to Ground
  ,                                       !- Number of Vertices
  42.672, 19.812, 13.4112,                !- X,Y,Z Vertex 1 {m}
  47.244, 19.812, 13.4112,                !- X,Y,Z Vertex 2 {m}
  47.244, 19.812, 10.3632,                !- X,Y,Z Vertex 3 {m}
  42.672, 19.812, 10.3632;                !- X,Y,Z Vertex 4 {m}

OS:Surface,
  {4a5aad28-213d-42d3-9dd1-77b0fcfc07aa}, !- Handle
  Face 504,                               !- Name
  Wall,                                   !- Surface Type
  ,                                       !- Construction Name
  {8184bb35-d235-4d34-8ac0-71b1ed7ce552}, !- Space Name
  Surface,                                !- Outside Boundary Condition
  {fe116291-8f20-456e-8d21-52f8cac2b57f}, !- Outside Boundary Condition Object
  NoSun,                                  !- Sun Exposure
  NoWind,                                 !- Wind Exposure
  ,                                       !- View Factor to Ground
  ,                                       !- Number of Vertices
  47.244, 10.668, 13.4112,                !- X,Y,Z Vertex 1 {m}
  42.672, 10.668, 13.4112,                !- X,Y,Z Vertex 2 {m}
  42.672, 10.668, 10.3632,                !- X,Y,Z Vertex 3 {m}
  47.244, 10.668, 10.3632;                !- X,Y,Z Vertex 4 {m}

OS:SpaceType,
  {9be2e949-2ade-4ee5-98d5-3ea7ec2fa748}, !- Handle
  living - ,                              !- Name
  ,                                       !- Default Construction Set Name
  {62da5bf9-ebfb-4375-9266-f2b100f4e43a}, !- Default Schedule Set Name
  {3a1491e3-43ea-4c95-a5e0-11e517c50711}, !- Group Rendering Name
  {64994c85-6455-4164-a215-af7ded2f66b4}, !- Design Specification Outdoor Air Object Name
  ,                                       !- Standards Template
  ,                                       !- Standards Building Type
  Apartment;                              !- Standards Space Type

OS:Rendering:Color,
  {3a1491e3-43ea-4c95-a5e0-11e517c50711}, !- Handle
  Rendering Color 14,                     !- Name
  136,                                    !- Rendering Red Value
  204,                                    !- Rendering Green Value
  238;                                    !- Rendering Blue Value

OS:BuildingStory,
  {f184c27a-154f-4e36-81ca-0b00ef10c06c}, !- Handle
  Story 4,                                !- Name
  10.3632,                                !- Nominal Z Coordinate {m}
  3.048,                                  !- Nominal Floor to Floor Height {m}
  ,                                       !- Default Construction Set Name
  ,                                       !- Default Schedule Set Name
  {18595150-b84b-4c36-bc0b-badeadd0d408}, !- Group Rendering Name
  3.048;                                  !- Nominal Floor to Ceiling Height {m}

OS:Rendering:Color,
  {18595150-b84b-4c36-bc0b-badeadd0d408}, !- Handle
  Rendering Color 15,                     !- Name
  17,                                     !- Rendering Red Value
  119,                                    !- Rendering Green Value
  51;                                     !- Rendering Blue Value

OS:BuildingUnit,
  {e006d2c1-a667-4123-8aba-db02149a4508}, !- Handle
  Building Unit 010,                      !- Name
  {ead17f29-8536-4dad-85a9-4bada8c68de3}, !- Rendering Color
  ;                                       !- Building Unit Type

OS:Rendering:Color,
  {ead17f29-8536-4dad-85a9-4bada8c68de3}, !- Handle
  Rendering Color 16,                     !- Name
  170,                                    !- Rendering Red Value
  68,                                     !- Rendering Green Value
  102;                                    !- Rendering Blue Value

OS:Space,
  {fcd8a03c-8970-4d89-880a-d9df3c015d3a}, !- Handle
  0_Bdrm_1_2,                             !- Name
  {9be2e949-2ade-4ee5-98d5-3ea7ec2fa748}, !- Space Type Name
  ,                                       !- Default Construction Set Name
  ,                                       !- Default Schedule Set Name
  ,                                       !- Direction of Relative North {deg}
  ,                                       !- X Origin {m}
  ,                                       !- Y Origin {m}
  ,                                       !- Z Origin {m}
  {ead74a8b-defb-4764-a8bc-2c2a5828d8ec}, !- Building Story Name
  {3e08f4e3-dc89-40d1-abdb-b46c128e0325}, !- Thermal Zone Name
  ,                                       !- Part of Total Floor Area
  ,                                       !- Design Specification Outdoor Air Object Name
  {1b06a6df-61b8-44ed-9566-746155c261d3}; !- Building Unit Name

OS:Surface,
  {075b9ab8-f751-4369-b38e-5eda2c888663}, !- Handle
  Face 250,                               !- Name
  Wall,                                   !- Surface Type
  ,                                       !- Construction Name
  {fcd8a03c-8970-4d89-880a-d9df3c015d3a}, !- Space Name
  Surface,                                !- Outside Boundary Condition
  {5ef029df-e816-4b0c-ab9c-c5a259ef3dbc}, !- Outside Boundary Condition Object
  NoSun,                                  !- Sun Exposure
  NoWind,                                 !- Wind Exposure
  ,                                       !- View Factor to Ground
  ,                                       !- Number of Vertices
  44.196, 0, 7.3152,                      !- X,Y,Z Vertex 1 {m}